xflr5 v6.61

 Calculated polar for: NACA 0012

 1 1 Reynolds number fixed          Mach number fixed         

 xtrf =   1.000 (top)        1.000 (bottom)
 Mach =   0.000     Re =     0.030 e 6     Ncrit =   4.000

  alpha     CL        CD       CDp       Cm    Top Xtr Bot Xtr   Cpmin    Chinge    XCp    
 ------- -------- --------- --------- -------- ------- ------- -------- --------- ---------
-20.000  -0.5708   0.22508   0.21581   0.0324  1.0000  0.1167  -1.2492   0.0000   0.0000   0.0000   0.2914
-19.500  -0.5671   0.22052   0.21118   0.0302  1.0000  0.1185  -1.2719   0.0000   0.0000   0.0000   0.2882
 -19.000  -0.5643   0.21589   0.20648   0.0279  1.0000  0.1193  -1.2987   0.0000   0.0000   0.0000   0.2847
 -18.500  -0.8024   0.21411   0.20356   0.0550  1.0000  0.0719  -2.0706   0.0000   0.0000   0.0000   0.2979
 -18.000  -0.7867   0.20748   0.19692   0.0508  1.0000  0.0699  -2.0782   0.0000   0.0000   0.0000   0.2946
 -17.500  -0.7746   0.20070   0.19013   0.0458  1.0000  0.0678  -2.1380   0.0000   0.0000   0.0000   0.2898
 -17.000  -0.7598   0.19383   0.18326   0.0416  1.0000  0.0666  -2.1551   0.0000   0.0000   0.0000   0.2861
 -16.500  -0.7477   0.18694   0.17636   0.0371  1.0000  0.0667  -2.2038   0.0000   0.0000   0.0000   0.2816
 -16.000  -0.7365   0.17969   0.16913   0.0326  1.0000  0.0665  -2.2810   0.0000   0.0000   0.0000   0.2768
 -15.500  -0.7270   0.17214   0.16159   0.0279  1.0000  0.0670  -2.3650   0.0000   0.0000   0.0000   0.2715
 -15.000  -0.7202   0.16387   0.15338   0.0227  1.0000  0.0681  -2.4714   0.0000   0.0000   0.0000   0.2652
 -14.500  -0.7100   0.15645   0.14597   0.0187  1.0000  0.0712  -2.5060   0.0000   0.0000   0.0000   0.2607
 -14.000  -0.7053   0.14784   0.13741   0.0138  1.0000  0.0739  -2.5941   0.0000   0.0000   0.0000   0.2545
 -13.500  -0.7056   0.13801   0.12764   0.0083  1.0000  0.0765  -2.7215   0.0000   0.0000   0.0000   0.2471
 -13.000  -0.7122   0.12645   0.11618   0.0019  1.0000  0.0779  -2.9017   0.0000   0.0000   0.0000   0.2384
 -12.500  -0.7197   0.11480   0.10459  -0.0039  1.0000  0.0792  -3.0579   0.0000   0.0000   0.0000   0.2307
 -12.000  -0.7547   0.09705   0.08691  -0.0144  1.0000  0.0802  -3.4327   0.0000   0.0000   0.0000   0.2175
 -11.500  -0.8091   0.07896   0.06853  -0.0253  1.0000  0.0805  -3.8380   0.0000   0.0000   0.0000   0.2059
 -11.000  -0.8442   0.06746   0.05651  -0.0292  1.0000  0.0822  -4.0157   0.0000   0.0000   0.0000   0.2033
 -10.500  -0.8604   0.05988   0.04836  -0.0283  1.0000  0.0869  -4.0405   0.0000   0.0000   0.0000   0.2057
 -10.000  -0.8554   0.05416   0.04217  -0.0262  1.0000  0.0938  -3.9449   0.0000   0.0000   0.0000   0.2085
  -9.500  -0.8366   0.04934   0.03689  -0.0241  1.0000  0.1026  -3.7825   0.0000   0.0000   0.0000   0.2108
  -9.000  -0.8143   0.04548   0.03281  -0.0218  1.0000  0.1161  -3.5750   0.0000   0.0000   0.0000   0.2134
  -8.500  -0.7873   0.04178   0.02883  -0.0195  1.0000  0.1334  -3.3652   0.0000   0.0000   0.0000   0.2159
  -8.000  -0.7587   0.03853   0.02532  -0.0171  1.0000  0.1590  -3.1851   0.0000   0.0000   0.0000   0.2187
  -7.500  -0.7295   0.03575   0.02254  -0.0145  1.0000  0.1914  -2.9864   0.0000   0.0000   0.0000   0.2219
  -7.000  -0.6990   0.03332   0.02015  -0.0117  1.0000  0.2356  -2.7786   0.0000   0.0000   0.0000   0.2255
  -6.500  -0.6675   0.03131   0.01820  -0.0086  1.0000  0.2906  -2.5628   0.0000   0.0000   0.0000   0.2299
  -6.000  -0.6356   0.02972   0.01671  -0.0049  1.0000  0.3521  -2.3420   0.0000   0.0000   0.0000   0.2354
  -5.500  -0.6018   0.02844   0.01556  -0.0010  1.0000  0.4173  -2.1170   0.0000   0.0000   0.0000   0.2419
  -5.000  -0.5660   0.02744   0.01468   0.0030  1.0000  0.4831  -1.9027   0.0000   0.0000   0.0000   0.2494
  -4.500  -0.5282   0.02665   0.01397   0.0071  1.0000  0.5483  -1.7110   0.0000   0.0000   0.0000   0.2579
  -4.000  -0.4886   0.02602   0.01338   0.0111  1.0000  0.6123  -1.5202   0.0000   0.0000   0.0000   0.2674
  -3.500  -0.4468   0.02556   0.01290   0.0148  1.0000  0.6743  -1.3320   0.0000   0.0000   0.0000   0.2782
  -3.000  -0.3998   0.02530   0.01263   0.0177  1.0000  0.7332  -1.1658   0.0000   0.0000   0.0000   0.2897
  -2.500  -0.3468   0.02517   0.01242   0.0193  1.0000  0.7901  -1.0005   0.0000   0.0000   0.0000   0.3014
  -2.000  -0.2848   0.02513   0.01225   0.0188  1.0000  0.8442  -0.8473   0.0000   0.0000   0.0000   0.3119
  -1.500  -0.2113   0.02512   0.01207   0.0153  1.0000  0.8947  -0.7076   0.0000   0.0000   0.0000   0.3185
  -1.000  -0.1246   0.02501   0.01181   0.0083  1.0000  0.9404  -0.5803   0.0000   0.0000   0.0000   0.3126
  -0.500  -0.0345   0.02474   0.01147  -0.0004  1.0000  0.9829  -0.4762   0.0000   0.0000   0.0000   0.2305
   0.000   0.0014   0.02453   0.01127  -0.0004  1.0000  1.0000  -0.4331   0.0000   0.0000   0.0000   0.5183
   0.500   0.0290   0.02469   0.01142   0.0012  0.9866  1.0000  -0.4763   0.0000   0.0000   0.0000   0.2023
   1.000   0.1188   0.02494   0.01173  -0.0076  0.9429  1.0000  -0.5788   0.0000   0.0000   0.0000   0.3097
   1.500   0.2039   0.02504   0.01197  -0.0144  0.8960  1.0000  -0.7031   0.0000   0.0000   0.0000   0.3165
   2.000   0.2772   0.02505   0.01214  -0.0179  0.8448  1.0000  -0.8411   0.0000   0.0000   0.0000   0.3105
   2.500   0.3395   0.02508   0.01231  -0.0186  0.7902  1.0000  -0.9932   0.0000   0.0000   0.0000   0.3004
   3.000   0.3932   0.02519   0.01252  -0.0172  0.7329  1.0000  -1.1576   0.0000   0.0000   0.0000   0.2891
   3.500   0.4406   0.02545   0.01279  -0.0144  0.6733  1.0000  -1.3240   0.0000   0.0000   0.0000   0.2778
   4.000   0.4836   0.02587   0.01321  -0.0108  0.6115  1.0000  -1.5130   0.0000   0.0000   0.0000   0.2672
   4.500   0.5241   0.02645   0.01371  -0.0069  0.5484  1.0000  -1.7064   0.0000   0.0000   0.0000   0.2576
   5.000   0.5618   0.02725   0.01443  -0.0029  0.4828  1.0000  -1.8973   0.0000   0.0000   0.0000   0.2491
   5.500   0.5974   0.02828   0.01538   0.0011  0.4154  1.0000  -2.1088   0.0000   0.0000   0.0000   0.2418
   6.000   0.6313   0.02953   0.01645   0.0050  0.3515  1.0000  -2.3352   0.0000   0.0000   0.0000   0.2352
   6.500   0.6635   0.03115   0.01801   0.0085  0.2887  1.0000  -2.5552   0.0000   0.0000   0.0000   0.2299
   7.000   0.6951   0.03315   0.01995   0.0116  0.2338  1.0000  -2.7709   0.0000   0.0000   0.0000   0.2255
   7.500   0.7259   0.03557   0.02234   0.0144  0.1898  1.0000  -2.9791   0.0000   0.0000   0.0000   0.2219
   8.000   0.7552   0.03835   0.02512   0.0170  0.1579  1.0000  -3.1783   0.0000   0.0000   0.0000   0.2187
   8.500   0.7841   0.04159   0.02864   0.0194  0.1323  1.0000  -3.3583   0.0000   0.0000   0.0000   0.2160
   9.000   0.8114   0.04527   0.03260   0.0217  0.1151  1.0000  -3.5682   0.0000   0.0000   0.0000   0.2135
   9.500   0.8339   0.04924   0.03684   0.0239  0.1016  1.0000  -3.7710   0.0000   0.0000   0.0000   0.2110
  10.000   0.8548   0.05371   0.04164   0.0260  0.0932  1.0000  -3.9543   0.0000   0.0000   0.0000   0.2088
  10.500   0.8578   0.05988   0.04842   0.0280  0.0863  1.0000  -4.0255   0.0000   0.0000   0.0000   0.2059
  11.000   0.8425   0.06738   0.05646   0.0289  0.0817  1.0000  -4.0063   0.0000   0.0000   0.0000   0.2036
  11.500   0.8136   0.07795   0.06750   0.0257  0.0797  1.0000  -3.8730   0.0000   0.0000   0.0000   0.2055
  12.000   0.7598   0.09563   0.08551   0.0152  0.0796  1.0000  -3.4790   0.0000   0.0000   0.0000   0.2165
  12.500   0.7233   0.11360   0.10344   0.0045  0.0788  1.0000  -3.0973   0.0000   0.0000   0.0000   0.2299
  13.000   0.7175   0.12489   0.11465  -0.0009  0.0774  1.0000  -2.9627   0.0000   0.0000   0.0000   0.2371
  13.500   0.7055   0.13786   0.12752  -0.0085  0.0762  1.0000  -2.7195   0.0000   0.0000   0.0000   0.2475
  14.000   0.7071   0.14723   0.13684  -0.0137  0.0733  1.0000  -2.6160   0.0000   0.0000   0.0000   0.2542
  14.500   0.7101   0.15630   0.14584  -0.0190  0.0708  1.0000  -2.5050   0.0000   0.0000   0.0000   0.2611
  15.000   0.7200   0.16381   0.15332  -0.0231  0.0679  1.0000  -2.4656   0.0000   0.0000   0.0000   0.2658
  15.500   0.7273   0.17204   0.16152  -0.0281  0.0668  1.0000  -2.3647   0.0000   0.0000   0.0000   0.2719
  16.000   0.7371   0.17962   0.16908  -0.0328  0.0664  1.0000  -2.2820   0.0000   0.0000   0.0000   0.2771
  16.500   0.7483   0.18691   0.17635  -0.0374  0.0666  1.0000  -2.2040   0.0000   0.0000   0.0000   0.2820
  17.000   0.7606   0.19386   0.18330  -0.0419  0.0665  1.0000  -2.1555   0.0000   0.0000   0.0000   0.2865
  17.500   0.7753   0.20077   0.19022  -0.0461  0.0678  1.0000  -2.1365   0.0000   0.0000   0.0000   0.2902
  18.000   0.7878   0.20756   0.19702  -0.0511  0.0697  1.0000  -2.0808   0.0000   0.0000   0.0000   0.2949
  18.500   0.8032   0.21423   0.20370  -0.0554  0.0717  1.0000  -2.0712   0.0000   0.0000   0.0000   0.2983
  19.000   0.8200   0.22473   0.21430  -0.0616  0.1080  1.0000  -1.9189   0.0000   0.0000   0.0000   0.3041
  19.500   0.8369   0.23106   0.22066  -0.0657  0.1084  1.0000  -1.9240   0.0000   0.0000   0.0000   0.3068
  20.000   0.8496   0.23589   0.22550  -0.0707  0.1065  1.0000  -1.8974   0.0000   0.0000   0.0000   0.3107


